docs/samples/psse/PSSE_LOAD_20260608_1730.raw
0 / END OF SYSTEM-WIDE DATA, BEGIN BUS DATA
0 / END OF BUS DATA, BEGIN LOAD DATA
51061,'T1',1,,,4.31,0.222 / ABBA132 T1
51061,'T2',1,,,7.529,0.266 / ABBA132 T2
51061,'T3',1,,,29.64,0.907 / ABBA132 T3
51061,'T4',1,,,29.334,0.919 / ABBA132 T4
51061,'T5',1,,,18.456,1.968 / ABBA132 T5
51061,'T6',1,,,18.489,1.986 / ABBA132 T6
51019,'T1',1,,,16.007,7.446 / ADAM132 T1
51019,'T2',1,,,15.42,2.903 / ADAM132 T2
96165,'T1',1,,,4.752,0.21 / AFMS132 T1
96165,'T2',1,,,3.539,0.041 / AFMS132 T2
97122,'T1',1,,,11.55,1.02 / AHMJ132 T1
97122,'T2',1,,,12.538,1.093 / AHMJ132 T2
51028,'T1',1,,,15.389,2.439 / AHTM132 T1
51028,'T2',1,,,15.734,1.862 / AHTM132 T2
61148,'T1',1,,,10.373,0.656 / AJYA132 T1
61148,'T2',1,,,5.051,0.093 / AJYA132 T2
61148,'T3',1,,,39.485,2.265 / AJYA132 T3
61148,'T4',0,,,0.000,0.000 / AJYA132 T4
96105,'T1',1,,,11.124,2.064 / AKRH132 T1
96105,'T2',1,,,6.803,1.06 / AKRH132 T2
74130,'F1',1,,,6.6,2.14 / AMCO132 F1
74130,'F2',1,,,8.1,1.63 / AMCO132 F2
96152,'T1',1,,,7.147,1.893 / AMID132 T1
96152,'T2',1,,,9.441,2.443 / AMID132 T2
96152,'T3',1,,,29.823,4.887 / AMID132 T3
96152,'T4',1,,,29.488,4.873 / AMID132 T4
88120,'T3',1,,,34.89,4.151 / AMPG132 T3
88120,'T4',1,,,34.919,4.184 / AMPG132 T4
88120,'T5',1,,,46.566,7.795 / AMPG132 T5
88120,'T6',0,,,0.000,0.000 / AMPG132 T6
63137,'F1',1,,,12.134,3.532 / APMC132 F1
563137,'F2',1,,,9.447,6.163 / APMC132 F2
551000,'F1',0,,,0.000,0.000 / APMR132 F1
51000,'F2',1,,,0.235,0.01 / APMR132 F2
51999,'F1',1,,,0.585,0.077 / ASMB132 F1
51999,'F2',1,,,0.576,0.067 / ASMB132 F2
75207,'F1',1,,,23.6,4.6 / ASSB275 F1
75207,'F2',1,,,27.3,4 / ASSB275 F2
97160,'F1',1,,,0.201,0.014 / ASTM132 F1
97160,'F2',0,,,0.000,0.000 / ASTM132 F2
61104,'T1',1,,,6.937,3.445 / ASTR132 T1
61104,'T2',1,,,6.523,0.562 / ASTR132 T2
61104,'T3',1,,,33.648,3.84 / ASTR132 T3
61104,'T4',1,,,16.439,7.636 / ASTR132 T4
97405,'T1',1,,,45.907,9.85 / ATDC132 T1
97405,'T2',1,,,46.291,10.733 / ATDC132 T2
62105,'T1',1,,,6.484,0.58 / ATJN132 T1
62105,'T2',1,,,9.362,1.489 / ATJN132 T2
62105,'T3',1,,,26.683,13.584 / ATJN132 T3
62105,'T4',1,,,29.372,9.095 / ATJN132 T4
74104,'T1',1,,,0.547,0.346 / ATNI132 T1
74104,'T2',1,,,3.555,0.246 / ATNI132 T2
63177,'T7',1,,,9.398,5.252 / AYTH132 T7
96138,'T1',1,,,12.245,1.119 / BAHA132 T1
96138,'T2',1,,,12.209,1.122 / BAHA132 T2
96138,'T3',1,,,3.85,2.414 / BAHA132 T3
96138,'T4',1,,,3.888,2.405 / BAHA132 T4
51043,'T1',1,,,15.871,2.353 / BARG132 T1
51043,'T2',1,,,2.008,0.271 / BARG132 T2
51043,'T3',1,,,13.33,0.235 / BARG132 T3
51043,'T4',1,,,13.186,0.22 / BARG132 T4
88123,'T1',1,,,13.152,2.073 / BBCC132 T1
88123,'T2',1,,,13.267,2.083 / BBCC132 T2
51035,'T1',0,,,0.000,0.000 / BBDG132 T1
51035,'T2',1,,,15.851,4.103 / BBDG132 T2
551035,'T7',1,,,29.64,10.19 / BBDG132 T7
96107,'T1',1,,,7.979,1.214 / BBDM132 T1
96107,'T2',1,,,21.979,6.925 / BBDM132 T2
96107,'T3',1,,,8.06,2.053 / BBDM132 T3
96107,'T4',1,,,5.223,2.366 / BBDM132 T4
96146,'T1',1,,,3.63,0.274 / BBNL132 T1
96146,'T2',1,,,2.929,0.256 / BBNL132 T2
62131,'T1',1,,,41.037,9.26 / BBRU132 T1
562131,'T2',1,,,40.748,9.179 / BBRU132 T2
62131,'T3',1,,,5.58,1.401 / BBRU132 T3
562131,'T4',1,,,15.404,4.762 / BBRU132 T4
51071,'T1',1,,,1.948,0.29 / BBST132 T1
51071,'T2',1,,,3.962,0.4 / BBST132 T2
51071,'T3',1,,,17.568,1.639 / BBST132 T3
51071,'T4',1,,,17.643,1.722 / BBST132 T4
51037,'T1',1,,,43.163,6.313 / BBTC132 T1
51037,'T2',1,,,42.463,6.686 / BBTC132 T2
51087,'T1',1,,,5.191,1.014 / BBTG132 T1
51087,'T2',1,,,6.291,1.085 / BBTG132 T2
51087,'T3',1,,,17.395,1.859 / BBTG132 T3
51087,'T4',1,,,17.223,1.824 / BBTG132 T4
97164,'T1',1,,,7.34,0.66 / BBTU132 T1
97164,'T2',1,,,9.95,1.37 / BBTU132 T2
297111,'T7',0,,,0.000,0.000 / BBTU132 T7
51078,'T1',1,,,9.508,0.159 / BCHG132 T1
51078,'T2',1,,,11.221,0.927 / BCHG132 T2
51078,'T3',1,,,18.204,0.657 / BCHG132 T3
51078,'T4',1,,,17.948,0.664 / BCHG132 T4
88194,'T1',1,,,7.526,1.349 / BCVS132 T1
88194,'T2',1,,,13.479,2.681 / BCVS132 T2
88194,'T3',1,,,46.358,9.322 / BCVS132 T3
88194,'T4',1,,,46.918,9.426 / BCVS132 T4
61115,'T1',0,,,0.000,0.000 / BDNG132 T1
61115,'T2',1,,,39.081,2.307 / BDNG132 T2
63106,'T1',1,,,10.101,1.383 / BDOR132 T1
63106,'T2',1,,,7.744,1.036 / BDOR132 T2
63106,'T3',1,,,10.608,2.803 / BDOR132 T3
63106,'T4',1,,,10.546,2.805 / BDOR132 T4
88141,'T1',1,,,33.781,9.103 / BFLD132 T1
88141,'T2',1,,,34.278,9.219 / BFLD132 T2
51060,'T1',1,,,4.713,1.287 / BHGT132 T1
51060,'T2',1,,,7.095,0.116 / BHGT132 T2
74128,'T1',1,,,9.613,1.426 / BIMK132 T1
74128,'T2',1,,,10.804,1.492 / BIMK132 T2
74128,'T3',1,,,35.91,2.003 / BIMK132 T3
74128,'T4',1,,,36.751,7.296 / BIMK132 T4
88177,'T1',1,,,34.301,0.403 / BJLL132 T1
88177,'T2',1,,,34.362,0.405 / BJLL132 T2
88177,'T3',1,,,6.525,0.064 / BJLL132 T3
88177,'T4',1,,,8.909,1.182 / BJLL132 T4
51083,'T1',1,,,5.859,1.08 / BJTG132 T1
51083,'T2',1,,,3.962,0.26 / BJTG132 T2
51083,'T3',1,,,30.094,2.672 / BJTG132 T3
51083,'T4',1,,,29.487,2.206 / BJTG132 T4
61124,'T1',1,,,5.096,0.674 / BKHM132 T1
61124,'T2',1,,,5.105,0.676 / BKHM132 T2
61124,'T3',1,,,18.91,0.67 / BKHM132 T3
61124,'T4',1,,,18.95,0.669 / BKHM132 T4
97174,'T1',0,,,0.000,0.000 / BKPG132 T1
97174,'T2',1,,,7.264,0.9 / BKPG132 T2
51045,'T1',1,,,10.549,1.971 / BKPR132 T1
51045,'T2',1,,,11.372,1.838 / BKPR132 T2
51045,'T3',1,,,19.037,7.787 / BKPR132 T3
51045,'T4',1,,,19.717,4.084 / BKPR132 T4
96192,'T1',0,,,0.000,0.000 / BKPY132 T1
96192,'T2',1,,,19.693,2.949 / BKPY132 T2
97102,'T1',1,,,10.747,1.699 / BKRI132 T1
97102,'T2',1,,,11.503,2.072 / BKRI132 T2
61123,'T1',1,,,17.65,3.23 / BKRS132 T1
61123,'T2',1,,,17.58,2.71 / BKRS132 T2
62120,'T1',1,,,55.402,11.577 / BKWS132 T1
62120,'T2',1,,,55.564,11.616 / BKWS132 T2
61117,'T1',1,,,12.346,6.782 / BLIN132 T1
61117,'T2',1,,,15.17,5.954 / BLIN132 T2
51062,'T1',1,,,8.964,2.174 / BLKG132 T1
51062,'T2',1,,,5.353,0.696 / BLKG132 T2
51062,'T3',1,,,34.581,3.508 / BLKG132 T3
51062,'T4',1,,,34.082,5.948 / BLKG132 T4
62104,'T1',1,,,41.182,10.372 / BLPS132 T1
62104,'T2',1,,,40.737,10.312 / BLPS132 T2
62102,'T3',1,,,40.458,7.722 / BLPS132 T3
62102,'T4',1,,,42.516,8.09 / BLPS132 T4
62106,'T1',1,,,6.557,0.473 / BMJM132 T1
62106,'T2',1,,,11.584,1.185 / BMJM132 T2
62106,'T3',1,,,21.449,2.592 / BMJM132 T3
62106,'T4',1,,,21.308,2.581 / BMJM132 T4
96111,'T1',1,,,4.106,0.473 / BMKA132 T1
96111,'T2',1,,,9.565,1.738 / BMKA132 T2
88114,'T1',0,,,0.000,0.000 / BMKM132 T1
88114,'T2',1,,,37.469,6.893 / BMKM132 T2
63153,'T3',1,,,11.902,5.847 / BMRH132 T3
63153,'T4',1,,,11.927,4.426 / BMRH132 T4
74112,'T1',1,,,12.797,4.905 / BMSH132 T1
74112,'T2',1,,,12.749,4.91 / BMSH132 T2
62110,'T1',1,,,52.201,12.672 / BMTR132 T1
62110,'T2',1,,,52.362,12.695 / BMTR132 T2
62108,'T1',1,,,14.592,3.555 / BMYK132 T1
62108,'T2',1,,,15.418,3.611 / BMYK132 T2
62108,'T3',1,,,50.972,15.717 / BMYK132 T3
62108,'T4',1,,,48.405,3.863 / BMYK132 T4
74120,'T1',0,,,0.000,0.000 / BNTA132 T1
74120,'T2',1,,,4.287,0.786 / BNTA132 T2
74118,'T1',1,,,7.824,0.206 / BNTG132 T1
74118,'T2',1,,,12.944,2.755 / BNTG132 T2
97106,'T1',1,,,37.28,3.89 / BPHE132 T1
97106,'T2',1,,,37.216,3.909 / BPHE132 T2
97129,'T1',1,,,10.602,2.287 / BPHT132 T1
97129,'T2',1,,,11.372,2.547 / BPHT132 T2
96101,'T1',1,,,6.459,0.351 / BRBI132 T1
96101,'T2',1,,,8.503,1.631 / BRBI132 T2
96101,'T3',1,,,8.144,0.677 / BRBI132 T3
96101,'T4',1,,,8.121,0.68 / BRBI132 T4
97246,'T1',1,,,104.37,4.97 / BRDC275 T1
97246,'T2',1,,,98,6.545 / BRDC275 T2
51004,'T1',1,,,7.41,1.122 / BRGS132 T1
51004,'T2',1,,,10.329,1.767 / BRGS132 T2
 51004,'T3' / No Reading / BRGS132 T3
 51004,'T4' / No Reading / BRGS132 T4
75138,'T1',1,,,8.648,1.08 / BRKT132 T1
75138,'T2',1,,,8.554,1.063 / BRKT132 T2
75138,'T3',1,,,4.4,0.93 / BRKT132 T3
51053,'T1',1,,,9.698,2.815 / BRNG132 T1
51053,'T2',1,,,12.163,2.546 / BRNG132 T2
 51053,'T3' / No Reading / BRNG132 T3
 51053,'T4' / No Reading / BRNG132 T4
51053,'T5',1,,,36.165,2.588 / BRNG132 T5
51053,'T6',1,,,35.851,2.588 / BRNG132 T6
61120,'T1',1,,,9.065,2.139 / BSBU132 T1
61120,'T2',1,,,9.016,2.118 / BSBU132 T2
97182,'T1',1,,,7.873,1.008 / BSPT132 T1
97182,'T2',1,,,7.934,1.016 / BSPT132 T2
97182,'T3',1,,,12.706,1.438 / BSPT132 T3
97182,'T4',1,,,12.86,1.453 / BSPT132 T4
63151,'T1',1,,,4.931,0.14 / BSRI132 T1
63151,'T2',1,,,13.172,1.006 / BSRI132 T2
51056,'T1',1,,,5.609,0.987 / BSTA132 T1
51056,'T2',1,,,10.519,2.193 / BSTA132 T2
51056,'T3',1,,,16.335,5.419 / BSTA132 T3
51056,'T4',1,,,16.437,5.461 / BSTA132 T4
97211,'F1',0,,,0.000,0.000 / BSTL275 F1
97211,'F2',1,,,7.4,1.5 / BSTL275 F2
51001,'T1',1,,,5.155,4.425 / BTAI132 T1
51001,'T2',1,,,5.784,1.364 / BTAI132 T2
62101,'T1',1,,,35.263,4.785 / BTBN132 T1
62101,'T2',1,,,35.401,4.882 / BTBN132 T2
51048,'T1',1,,,22.075,4.226 / BTGA132 T1
51048,'T2',1,,,22.405,3.471 / BTGA132 T2
51048,'T3',0,,,0.000,0.000 / BTGA132 T3
462114,'T1',1,,,51,11.54 / BTGH132 T1
462114,'T2',1,,,48.233,11.323 / BTGH132 T2
151088,'T7',0,,,0.000,0.000 / BTIC132 T7
51008,'T1',1,,,33.014,5.768 / BTIN132 T1
51008,'T2',1,,,35.046,5.244 / BTIN132 T2
63166,'T1',1,,,5.66,0.5 / BTNG132 T1
63166,'T2',1,,,5.71,0.51 / BTNG132 T2
74101,'T1',1,,,0.435,0.238 / BTRT132 T1
74101,'T2',1,,,0.437,0.237 / BTRT132 T2
88136,'T1',1,,,6.794,1.145 / BTRZ132 T1
88136,'T2',1,,,5.04,0.47 / BTRZ132 T2
88136,'T3',1,,,38.826,2.502 / BTRZ132 T3
88136,'T4',1,,,39.006,2.455 / BTRZ132 T4
51080,'F1',1,,,19.2,2.3 / BUTM132 F1
51080,'F2',1,,,14,10.7 / BUTM132 F2
96122,'T1',1,,,4.864,0.855 / BVTA132 T1
96122,'T2',1,,,9.384,1.722 / BVTA132 T2
62133,'T1',1,,,35.545,1.648 / BWTN132 T1
62133,'T2',1,,,36.88,2.622 / BWTN132 T2
62133,'T5',0,,,0.000,0.000 / BWTN132 T5
97148,'T3',1,,,5.079,0.669 / CAAH132 T3
97148,'T4',1,,,4.88,2.963 / CAAH132 T4
51089,'T1',1,,,29.04,1.287 / CBJC132 T1
51089,'T2',1,,,29.002,1.248 / CBJC132 T2
51089,'T3',1,,,7.818,0.771 / CBJC132 T3
51089,'T4',1,,,7.78,0.768 / CBJC132 T4
51112,'T1',1,,,7.596,1.053 / CBJN132 T1
51112,'T2',1,,,6.303,0.647 / CBJN132 T2
51112,'T3',1,,,45.303,2.024 / CBJN132 T3
51112,'T4',1,,,45.532,2.036 / CBJN132 T4
51006,'T1',1,,,12.73,1.753 / CBPS132 T1
51006,'T2',1,,,9.183,1.768 / CBPS132 T2
51006,'T3',1,,,44.939,7.063 / CBPS132 T3
51006,'T4',1,,,30.24,4.58 / CBPS132 T4
97178,'T1',1,,,7.717,0.237 / CBRU132 T1
97178,'T2',1,,,7.677,0.229 / CBRU132 T2
97178,'T3',1,,,25.93,0.874 / CBRU132 T3
97178,'T4',1,,,25.689,0.873 / CBRU132 T4
63141,'T1',1,,,6.697,1.271 / CEND132 T1
63141,'T2',1,,,6.712,1.268 / CEND132 T2
96191,'T1',1,,,9.086,2.215 / CHNG132 T1
96191,'T2',1,,,12.356,2.294 / CHNG132 T2
96191,'T3',1,,,27.579,4.983 / CHNG132 T3
96191,'T4',1,,,27.565,4.973 / CHNG132 T4
75109,'T1',1,,,12.175,1.103 / CHRG132 T1
75109,'T2',1,,,9.522,1.133 / CHRG132 T2
75109,'T3',1,,,26.18,2.368 / CHRG132 T3
75109,'T4',1,,,26.481,2.195 / CHRG132 T4
61114,'F1',1,,,1.764,1.246 / CIMA132 F1
61114,'F2',1,,,13.568,5.825 / CIMA132 F2
75128,'F1',1,,,16.7,9.21 / CJDG132 F1
75128,'F2',1,,,15.84,6.32 / CJDG132 F2
51038,'T1',1,,,39.725,5.666 / CJYA132 T1
51038,'T2',1,,,41.75,7.73 / CJYA132 T2
51038,'T3',1,,,50.095,8.636 / CJYA132 T3
75144,'T1',1,,,19.645,2.66 / CKAI132 T1
75144,'T2',0,,,0.000,0.000 / CKAI132 T2
96176,'T3',1,,,15.01,2.38 / CMBG132 T3
96176,'T4',1,,,15.73,3.14 / CMBG132 T4
88164,'T1',1,,,4.98,0.83 / COCH132 T1
88164,'T2',1,,,5.03,0.97 / COCH132 T2
61101,'T1',1,,,4.482,0.19 / CPNG132 T1
61101,'T2',1,,,4.498,0.194 / CPNG132 T2
74150,'F1',1,,,23.602,10.404 / CUFG132 F1
75150,'F1',1,,,29.518,7.439 / CUFK132 F1
97197,'T1',0,,,0.000,0.000 / DBAY132 T1
97197,'T2',1,,,12.048,1.91 / DBAY132 T2
88104,'T1',1,,,19.506,3.493 / DCTY132 T1
88104,'T2',1,,,19.586,3.481 / DCTY132 T2
88195,'T1',1,,,7.937,1.31 / DDSA132 T1
88195,'T2',1,,,4.675,0.537 / DDSA132 T2
88195,'T3',1,,,31.353,1.207 / DDSA132 T3
88195,'T4',1,,,31.371,1.19 / DDSA132 T4
75118,'T1',1,,,11.029,0.38 / DGID132 T1
75118,'T2',1,,,11.1,0.395 / DGID132 T2
75103,'T1',1,,,4.176,0.129 / DGUN132 T1
75103,'T2',1,,,4.136,0.123 / DGUN132 T2
62109,'T1',1,,,9.273,0.173 / DKMT132 T1
62109,'T2',1,,,9.303,0.163 / DKMT132 T2
88112,'T1',1,,,12.252,0.766 / DMHT132 T1
88112,'T2',1,,,12.16,0.761 / DMHT132 T2
88112,'T3',1,,,5.894,0.787 / DMHT132 T3
88112,'T4',1,,,5.875,0.048 / DMHT132 T4
97157,'T1',1,,,4.9,0.17 / DSRU132 T1
97157,'T2',1,,,8.916,0.351 / DSRU132 T2
88113,'T1',1,,,5.729,1.463 / DWGI132 T1
88113,'T2',1,,,5.671,1.362 / DWGI132 T2
51067,'T1',1,,,3.495,0.048 / ELMW132 T1
51067,'T2',1,,,3.494,0.038 / ELMW132 T2
75119,'F1',1,,,8.8,4.41 / EMSB132 F1
75119,'F2',1,,,8.27,0.51 / EMSB132 F2
51210,'F1',1,,,4.1,1.25 / ERLA132 F1
51210,'F2',0,,,0.000,0.000 / ERLA132 F2
96169,'T1',1,,,13.75,1.353 / ESTK132 T1
96169,'T2',1,,,13.867,1.387 / ESTK132 T2
75212,'F1',1,,,15.9,9.92 / ESTL275 F1
75212,'F2',1,,,31.66,19.59 / ESTL275 F2
97176,'T1',1,,,39.54,1.67 / FCTR132 T1
97176,'T2',1,,,39.66,1.67 / FCTR132 T2
62103,'T1',1,,,9.564,0.741 / FLIM132 T1
62103,'T2',1,,,5.465,0.575 / FLIM132 T2
62103,'T3',1,,,27.796,14.555 / FLIM132 T3
62103,'T4',1,,,24.34,8.961 / FLIM132 T4
51070,'F1',1,,,11.789,4.935 / FSCL132 F1
551070,'F2',1,,,10.119,4.167 / FSCL132 F2
75116,'T1',1,,,10.238,1.69 / GBDK132 T1
75116,'T2',1,,,10.272,1.609 / GBDK132 T2
75116,'T3',1,,,17.405,1.8 / GBDK132 T3
75116,'T4',1,,,17.477,1.833 / GBDK132 T4
74137,'T1',1,,,8.782,1.109 / GBID132 T1
74137,'T2',1,,,8.735,1.132 / GBID132 T2
74138,'T1',1,,,0.931,0.699 / GBNG132 T1
74138,'T2',1,,,6.075,1.915 / GBNG132 T2
74138,'T3',1,,,10.877,0.135 / GBNG132 T3
74138,'T4',1,,,10.704,0.153 / GBNG132 T4
61108,'T1',1,,,5.306,0.345 / GCPD132 T1
61108,'T2',1,,,5.312,0.345 / GCPD132 T2
97403,'T1',1,,,49.372,3.941 / GDSD132 T1
97403,'T2',1,,,3.77,0.312 / GDSD132 T2
97403,'T3',1,,,43.308,3.96 / GDSD132 T3
97403,'T4',1,,,3.772,0.317 / GDSD132 T4
62118,'T1',1,,,15.879,4.191 / GLGR132 T1
62118,'T2',1,,,18.764,0.797 / GLGR132 T2
62118,'T3',1,,,18.799,0.803 / GLGR132 T3
96140,'T1',1,,,7.907,1.241 / GMAS132 T1
96140,'T2',1,,,3.786,0.231 / GMAS132 T2
75133,'T1',1,,,5.621,0.663 / GMSG132 T1
75133,'T2',1,,,5.586,0.682 / GMSG132 T2
75133,'T3',1,,,6.21,1.994 / GMSG132 T3
75133,'T4',1,,,6.148,2.015 / GMSG132 T4
63124,'T1',1,,,4.932,0.839 / GPRD132 T1
63124,'T2',1,,,8.356,0.871 / GPRD132 T2
63124,'T3',1,,,33.172,3.635 / GPRD132 T3
63124,'T4',1,,,21.997,5.434 / GPRD132 T4
97187,'T1',1,,,7.718,0.799 / GPTH132 T1
97187,'T2',1,,,7.697,0.799 / GPTH132 T2
97187,'T3',1,,,44.803,2.719 / GPTH132 T3
97187,'T4',1,,,44.703,2.757 / GPTH132 T4
63209,'T1',1,,,7.421,26.214 / GRIK275 T1
61116,'T1',1,,,11.013,2.373 / GRNE132 T1
61116,'T2',1,,,11.105,2.398 / GRNE132 T2
97105,'T1',1,,,10.336,0.845 / GRSK132 T1
97105,'T2',1,,,10.324,0.867 / GRSK132 T2
61109,'T1',1,,,4.838,0.031 / GRUN132 T1
61109,'T2',1,,,4.816,0.031 / GRUN132 T2
61131,'T1',1,,,32.546,6.538 / GTHR132 T1
61131,'T2',1,,,32.252,6.499 / GTHR132 T2
74125,'T1',1,,,0.937,0.018 / GTNG132 T1
74125,'T2',1,,,5.09,0.325 / GTNG132 T2
63176,'T1',1,,,21.897,15.725 / GTWN132 T1
63176,'T2',1,,,19.219,7.382 / GTWN132 T2
88133,'T1',1,,,22.551,28.97 / GWAY132 T1
88133,'T2',1,,,19.008,20.215 / GWAY132 T2
97407,'T1',1,,,52.62,2.28 / GWDC132 T1
97407,'T2',1,,,52.26,3.42 / GWDC132 T2
51072,'T1',1,,,35.652,3.61 / HCOM132 T1
51072,'T2',1,,,31.187,5.662 / HCOM132 T2
51072,'T3',1,,,5.209,0.801 / HCOM132 T3
51072,'T4',1,,,8.316,1.545 / HCOM132 T4
88156,'T1',1,,,6.032,1.548 / HKCK132 T1
88156,'T2',1,,,6.167,1.072 / HKCK132 T2
88156,'T3',1,,,42.146,8.279 / HKCK132 T3
88156,'T4',1,,,41.741,8.129 / HKCK132 T4
96196,'F1',1,,,4.611,0.838 / HLNM132 F1
96194,'1A',1,,,5.472,2.628 / HLNN132 F1A
96194,'1B',1,,,4.601,1.915 / HLNN132 F1B
96194,'2A',1,,,10.469,4.492 / HLNN132 F2A
96194,'2B',0,,,0.000,0.000 / HLNN132 F2B
63136,'T1',1,,,23.33,2.306 / HMLG132 T1
63136,'T2',1,,,23.237,2.301 / HMLG132 T2
51077,'F1',1,,,10.762,3.648 / HNQC132 F1
51077,'F2',1,,,10.589,3.734 / HNQC132 F2
96106,'T1',1,,,6.9,0.988 / HPGH132 T1
96106,'T2',1,,,6.929,0.993 / HPGH132 T2
75122,'T1',1,,,0.25,0.07 / HTXD132 T1
75122,'T2',1,,,0.24,0.07 / HTXD132 T2
63114,'F1',1,,,13.786,4.387 / HUME132 F1
563114,'F2',1,,,13.901,3.494 / HUME132 F2
62148,'F1',0,,,0.000,0.000 / IBDN132 F1
62148,'F2',1,,,11.774,3.955 / IBDN132 F2
51219,'T1',1,,,0.058,0 / ICNC132 T1
51219,'T2',1,,,0.029,0.009 / ICNC132 T2
51047,'T1',1,,,11.298,2.968 / IGBK132 T1
51047,'T2',1,,,10.284,2.388 / IGBK132 T2
51047,'T3',1,,,26.257,4.819 / IGBK132 T3
51047,'T4',1,,,24.175,3.469 / IGBK132 T4
88161,'T1',1,,,6.347,1.538 / IMBI132 T1
88161,'T2',1,,,8.165,2.509 / IMBI132 T2
88161,'T3',1,,,37.478,10.41 / IMBI132 T3
88161,'T4',1,,,37.5,10.42 / IMBI132 T4
88161,'T5',1,,,34.305,9.308 / IMBI132 T5
62143,'F1',1,,,10.319,1.834 / INTL132 F1
562143,'F2',1,,,13.209,3.265 / INTL132 F2
61127,'T1',1,,,15.982,2.18 / INTN132 T1
61127,'T2',1,,,12.621,1.983 / INTN132 T2
61127,'T3',1,,,25.198,4.718 / INTN132 T3
61127,'T4',1,,,24.947,4.8 / INTN132 T4
51101,'T1',1,,,16.954,4.032 / IOIM132 T1
51101,'T2',1,,,16.829,4.003 / IOIM132 T2
74135,'T1',1,,,4.612,1.044 / JBRS132 T1
74135,'T2',1,,,8.509,1.238 / JBRS132 T2
74135,'T3',1,,,4.741,2.147 / JBRS132 T3
74135,'T4',1,,,4.718,2.137 / JBRS132 T4
97194,'T1',1,,,28.955,4.401 / JBSK132 T1
97194,'T2',1,,,28.081,1.584 / JBSK132 T2
51066,'T1',0,,,0.000,0.000 / JDHL132 T1
51066,'T2',0,,,0.000,0.000 / JDHL132 T2
74146,'F1',1,,,0.14,2.17 / JDSI132 F1
 74146,'F2' / No Reading / JDSI132 F2
75206,'T1',1,,,5.493,0.479 / JELI275 T1
75206,'T2',1,,,5.267,0.806 / JELI275 T2
61107,'T1',1,,,12.225,1.046 / JENG132 T1
61107,'T2',1,,,12.17,1.018 / JENG132 T2
88157,'T1',1,,,0.064,3.853 / JING132 T1
88157,'T2',1,,,0.063,2.943 / JING132 T2
97150,'T1',1,,,5.698,0.576 / JMTH132 T1
97150,'T2',1,,,6.886,0.766 / JMTH132 T2
74123,'T1',1,,,10.809,0.125 / JNKA132 T1
74123,'T2',1,,,11,0.4 / JNKA132 T2
74123,'T7',1,,,6.975,3.537 / JNKA132 T7
62126,'F1',1,,,3.684,0.677 / JNKO132 F1
96109,'T1',1,,,6.028,0.055 / JSIN132 T1
96109,'T2',1,,,11.043,0.468 / JSIN132 T2
96109,'T3',1,,,7.978,3.691 / JSIN132 T3
96109,'T4',1,,,8.05,3.724 / JSIN132 T4
97110,'T1',1,,,9.277,1.517 / JTGH132 T1
97110,'T2',1,,,9.348,1.568 / JTGH132 T2
74122,'T1',1,,,16.373,0.643 / JTUT132 T1
74122,'T2',1,,,16.224,0.628 / JTUT132 T2
74110,'T1',1,,,7.66,0.117 / KAWA132 T1
74110,'T2',1,,,7.579,0.126 / KAWA132 T2
96148,'F1',0,,,0.000,0.000 / KBBR132 F1
96148,'F2',1,,,0.173,0.081 / KBBR132 F2
63110,'F1',1,,,0.315,0.086 / KBMH132 F1
63110,'F2',1,,,0.183,0.065 / KBMH132 F2
75140,'T1',1,,,7.749,0.179 / KBRG132 T1
75140,'T2',1,,,7.285,0.536 / KBRG132 T2
75140,'T3',1,,,5.13,5.637 / KBRG132 T3
75140,'T4',1,,,5.207,5.775 / KBRG132 T4
61130,'F1',1,,,0.878,0.151 / KBRI132 F1
61130,'F2',1,,,0.895,0.187 / KBRI132 F2
75112,'T1',1,,,26.178,2.979 / KBRU132 T1
75112,'T2',1,,,9.272,0.278 / KBRU132 T2
75112,'T3',1,,,24.046,3.295 / KBRU132 T3
75112,'T4',1,,,10.138,3.894 / KBRU132 T4
75112,'T5',1,,,25.028,11.947 / KBRU132 T5
61145,'T1',1,,,6.465,4.292 / KCMT132 T1
561145,'T2',1,,,11.29,2.419 / KCMT132 T2
51031,'T1',1,,,30.739,9.61 / KCPK132 T1
51031,'T2',1,,,29.708,3.034 / KCPK132 T2
75131,'T1',1,,,14.869,0.918 / KDIS132 T1
75131,'T2',1,,,14.838,0.816 / KDIS132 T2
51011,'T1',1,,,8.427,1.527 / KDSA132 T1
51011,'T2',1,,,10.261,1.91 / KDSA132 T2
51011,'T3',1,,,58.717,9.901 / KDSA132 T3
51011,'T4',1,,,50.592,16.366 / KDSA132 T4
51011,'T5',1,,,48.444,3.421 / KDSA132 T5
61141,'T1',1,,,6.471,4.013 / KERC132 T1
61141,'T2',1,,,6.557,4.061 / KERC132 T2
51092,'T1',1,,,33.35,4.87 / KEST132 T1
51092,'T2',1,,,33.18,4.82 / KEST132 T2
61137,'T1',1,,,8.6,3.131 / KGAR132 T1
61137,'T2',1,,,8.352,0.162 / KGAR132 T2
61137,'T3',1,,,12.199,1.216 / KGAR132 T3
61137,'T4',1,,,12.124,1.22 / KGAR132 T4
96118,'T1',1,,,3.932,0.176 / KGDK132 T1
96118,'T2',1,,,3.954,0.175 / KGDK132 T2
63128,'T1',1,,,6.88,2.35 / KGJH132 T1
63128,'T2',1,,,6.14,2.27 / KGJH132 T2
75147,'F1',1,,,1.35,0.7 / KGPP132 F1
75147,'F2',1,,,1.22,0.78 / KGPP132 F2
61128,'F1',1,,,0.862,0.197 / KGRN132 F1
61118,'L1',1,,,1.008,0.316 / KHTC132 L1
61118,'L3',1,,,1.325,0.375 / KHTC132 L3
97402,'F1',1,,,5.55,3.17 / KISW132 F1
97402,'F2',1,,,6.8,0.67 / KISW132 F2
51115,'F1',0,,,0.000,0.000 / KJKM132 F1
51055,'T1',0,,,0.000,0.000 / KJNG132 T1
51055,'T2',1,,,19.925,4.476 / KJNG132 T2
51055,'T3',1,,,32.079,3.775 / KJNG132 T3
51055,'T4',1,,,32.116,3.775 / KJNG132 T4
63148,'T1',1,,,8.749,1.973 / KJWA132 T1
63148,'T2',1,,,8.563,2.084 / KJWA132 T2
51036,'T1',1,,,7.563,1.427 / KKMG132 T1
51036,'T2',1,,,7.843,1.502 / KKMG132 T2
51036,'T3',1,,,38.937,5.092 / KKMG132 T3
51036,'T4',1,,,39.59,5.178 / KKMG132 T4
75113,'T3',1,,,20.399,1.32 / KKRI132 T3
75113,'T4',0,,,0.000,0.000 / KKRI132 T4
63138,'T1',1,,,10.529,1.104 / KKSR132 T1
63138,'T2',1,,,6.808,1.042 / KKSR132 T2
61122,'T1',1,,,2.856,0.402 / KKTL132 T1
61122,'T2',1,,,5.081,0.301 / KKTL132 T2
61122,'T3',1,,,15.425,1.098 / KKTL132 T3
61122,'T4',1,,,15.484,1.07 / KKTL132 T4
97168,'T1',1,,,2.393,0.04 / KKUP132 T1
97168,'T2',1,,,3.823,0.565 / KKUP132 T2
96112,'T1',1,,,5.18,0.856 / KKWG132 T1
96112,'T2',1,,,5.203,0.875 / KKWG132 T2
97112,'T1',1,,,12.211,2.972 / KLAI132 T1
597112,'T2',1,,,12.152,3.46 / KLAI132 T2
96132,'T1',1,,,12.676,1.976 / KLAT132 T1
96132,'T2',1,,,8.755,1.2 / KLAT132 T2
63155,'T1',1,,,14.109,2.346 / KLBG132 T1
63155,'T2',1,,,13.979,2.346 / KLBG132 T2
63155,'T3',1,,,8.72,2.279 / KLBG132 T3
63155,'T4',1,,,8.678,2.204 / KLBG132 T4
588146,'T1',1,,,6.796,1.128 / KLCC132 T1
588146,'T2',1,,,10.01,2.043 / KLCC132 T2
88146,'T3',1,,,32.438,9.171 / KLCC132 T3
88146,'T4',1,,,32.383,9.18 / KLCC132 T4
88110,'F1',1,,,10.502,3.168 / KLCP132 F1
88110,'F2',1,,,1.757,1.152 / KLCP132 F2
63199,'F1',1,,,0.148,0.063 / KLHT132 F1
63199,'F2',1,,,0.787,0.202 / KLHT132 F2
51018,'T1',1,,,4.003,0.095 / KLIA132 T1
51018,'T2',1,,,3.889,0.397 / KLIA132 T2
51018,'T3',1,,,27.034,1.724 / KLIA132 T3
51018,'T4',1,,,26.511,1.689 / KLIA132 T4
97149,'T1',1,,,9.388,0.636 / KLID132 T1
97149,'T2',1,,,9.769,0.336 / KLID132 T2
97149,'T3',1,,,6.517,0.274 / KLID132 T3
97149,'T4',1,,,6.37,0.645 / KLID132 T4
61113,'T1',1,,,26.258,3.928 / KLIM132 T1
61113,'T2',1,,,26.398,3.947 / KLIM132 T2
74121,'T1',1,,,8.348,1.085 / KLIP132 T1
74121,'T2',1,,,8.35,1.078 / KLIP132 T2
74121,'T3',1,,,8.679,1.099 / KLIP132 T3
74121,'T4',1,,,8.492,1.079 / KLIP132 T4
88121,'T1',1,,,17.75,2.323 / KLJT132 T1
88121,'T2',1,,,17.664,2.337 / KLJT132 T2
88121,'T4',1,,,19.651,0.696 / KLJT132 T4
96126,'T1',1,,,6.627,0.669 / KLMK132 T1
96126,'T2',1,,,3.483,0.1 / KLMK132 T2
96126,'T3',1,,,6.77,0.93 / KLMK132 T3
96126,'T4',1,,,6.81,0.94 / KLMK132 T4
88163,'T1',1,,,41.06,7.27 / KLPV132 T1
88163,'T2',1,,,41.03,7.66 / KLPV132 T2
97109,'T1',1,,,8.24,0.682 / KLUG132 T1
97109,'T2',1,,,8.24,1.18 / KLUG132 T2
97109,'T3',1,,,10.634,1.082 / KLUG132 T3
97109,'T4',1,,,10.627,1.075 / KLUG132 T4
75105,'T1',1,,,8.944,1.369 / KMAN132 T1
75105,'T2',1,,,8.98,1.349 / KMAN132 T2
75105,'T3',1,,,2.337,2.554 / KMAN132 T3
75105,'T4',1,,,2.337,2.607 / KMAN132 T4
63104,'T1',1,,,11.46,1.25 / KMPR132 T1
63104,'T2',1,,,11.908,1.073 / KMPR132 T2
63104,'T3',1,,,13.426,0.488 / KMPR132 T3
63104,'T4',1,,,13.666,0.463 / KMPR132 T4
63119,'T1',1,,,10.09,1.653 / KMTG132 T1
63119,'T2',1,,,10.13,1.647 / KMTG132 T2
63119,'T3',1,,,3.346,0.959 / KMTG132 T3
63119,'T4',1,,,6.342,1.458 / KMTG132 T4
96137,'T1',1,,,13.686,0.59 / KPLH132 T1
96137,'T2',1,,,11.96,1.024 / KPLH132 T2
61102,'T1',1,,,6.641,0.688 / KPLS132 T1
61102,'T2',1,,,6.555,0.651 / KPLS132 T2
51026,'T1',1,,,5.981,0.807 / KPNG132 T1
51026,'T2',1,,,5.995,0.816 / KPNG132 T2
97132,'T1',1,,,12.154,1.334 / KPTR132 T1
97132,'T2',1,,,12.161,1.36 / KPTR132 T2
74116,'T1',1,,,1.438,0.064 / KRAK132 T1
74116,'T2',1,,,1.218,0.029 / KRAK132 T2
74116,'T3',1,,,3.499,0.037 / KRAK132 T3
74116,'T4',1,,,3.482,0.046 / KRAK132 T4
96175,'F1',1,,,1.976,0.424 / KRMB132 F1
96175,'F2',1,,,0.658,0.353 / KRMB132 F2
96102,'T1',1,,,9.416,0.147 / KRPH132 T1
96102,'T2',1,,,11.678,0.857 / KRPH132 T2
51118,'F1',0,,,0.000,0.000 / KRWG132 F1
51118,'F2',0,,,0.000,0.000 / KRWG132 F2
74145,'T1',1,,,12.62,2.76 / KRYG132 T1
74145,'T2',1,,,12.684,2.862 / KRYG132 T2
51211,'F1',1,,,0.816,0.165 / KSAS132 F1
51014,'T1',1,,,6.462,0.355 / KSBG132 T1
51014,'T2',1,,,7.281,1.608 / KSBG132 T2
51014,'T3',1,,,26.786,3.658 / KSBG132 T3
51014,'T4',1,,,26.702,2.473 / KSBG132 T4
51016,'T1',1,,,24.211,3.264 / KSGR132 T1
51016,'T2',1,,,24.413,3.005 / KSGR132 T2
51120,'F1',1,,,0.42,0.101 / KSJS132 F1
63197,'F1',1,,,2.853,1.097 / KSKI132 F1
51116,'F1',1,,,1.454,0.57 / KSLS132 F1
51116,'F2',1,,,0.827,0.326 / KSLS132 F2
62121,'F1',1,,,0.904,0.317 / KSMP132 F1
62121,'F2',1,,,0.384,0.115 / KSMP132 F2
63108,'F1',1,,,0.888,0.273 / KSPT132 F1
563108,'F2',1,,,0.438,0.078 / KSPT132 F2
61135,'T1',1,,,3.73,0.288 / KSSM132 T1
61135,'T2',1,,,3.752,0.296 / KSSM132 T2
61135,'T3',1,,,8.16,0.96 / KSSM132 T3
61135,'T4',1,,,8.203,0.993 / KSSM132 T4
161111,'T7',1,,,26.764,3.912 / KSTR132 T7
561111,'T8',1,,,21.457,0.074 / KSTR132 T8
74108,'T1',1,,,11.574,1.999 / KTAN132 T1
74108,'T2',1,,,12.483,5.749 / KTAN132 T2
74108,'T3',1,,,12.492,1.935 / KTAN132 T3
74108,'T4',1,,,24.528,0.259 / KTAN132 T4
74108,'T5',1,,,24.624,0.249 / KTAN132 T5
97189,'T1',1,,,16.791,3.158 / KTBR132 T1
97189,'T2',1,,,0.76,0.16 / KTBR132 T2
97189,'T3',1,,,36.35,3.45 / KTBR132 T3
97189,'T4',1,,,35.95,3.75 / KTBR132 T4
97189,'T5',1,,,8.031,2.022 / KTBR132 T5
97189,'T6',1,,,8.02,2.372 / KTBR132 T6
74141,'T1',1,,,7.377,1.478 / KTCL132 T1
74141,'T2',1,,,7.403,1.484 / KTCL132 T2
97249,'T1',1,,,27.685,2.275 / KTDC275 T1
97249,'T2',1,,,25.725,3.85 / KTDC275 T2
97116,'T3',1,,,8.146,0.938 / KTGI132 T3
97116,'T4',1,,,5.714,0.564 / KTGI132 T4
62123,'F1',1,,,0.411,0.119 / KTGR132 F1
62123,'F2',1,,,0.551,0.136 / KTGR132 F2
75115,'T1',1,,,13.059,2.132 / KTGU132 T1
75115,'T2',1,,,11.211,1.945 / KTGU132 T2
75115,'T3',1,,,10.644,1.893 / KTGU132 T3
75115,'T4',1,,,10.654,1.905 / KTGU132 T4
75124,'T1',1,,,4.214,0.637 / KTIH132 T1
75124,'T2',1,,,4.212,0.637 / KTIH132 T2
61129,'F1',1,,,0.549,0.148 / KTJG132 F1
61129,'F2',1,,,1.06,0.405 / KTJG132 F2
63109,'F1',1,,,0.88,0.2 / KTPG132 F1
63109,'F2',1,,,0.44,0.08 / KTPG132 F2
 74132,'T1' / No Reading / KTRI132 T1
88147,'F1',1,,,1.228,0.544 / KTST132 F1
588124,'T1',1,,,34.086,5.879 / KULE132 T1
588124,'T2',1,,,34.118,5.937 / KULE132 T2
88111,'T1',1,,,40.886,6.278 / KULN132 T1
88111,'T2',1,,,40.819,6.269 / KULN132 T2
588111,'T3',1,,,22.138,3.158 / KULN132 T3
588111,'T4',1,,,21.946,3.168 / KULN132 T4
88117,'T1',1,,,12.94,2.006 / KULS132 T1
88117,'T2',1,,,5.814,0.126 / KULS132 T2
88117,'T3',1,,,44.734,5.873 / KULS132 T3
88117,'T4',1,,,44.653,5.887 / KULS132 T4
63173,'T1',1,,,7.794,0.599 / KVRT132 T1
63173,'T2',1,,,9.315,1.022 / KVRT132 T2
63173,'T3',1,,,28.12,3.986 / KVRT132 T3
63173,'T4',1,,,28.1,3.99 / KVRT132 T4
51086,'T1',1,,,12.691,7.334 / LCCT132 T1
51086,'T2',1,,,12.634,7.363 / LCCT132 T2
88196,'F1',1,,,3.168,2.337 / LJTK132 F1
88196,'F2',1,,,3.344,1.472 / LJTK132 F2
51085,'T1',1,,,11.235,2.494 / LKDG132 T1
51085,'T2',1,,,12.258,1.878 / LKDG132 T2
51085,'T3',1,,,18.779,0.674 / LKDG132 T3
51085,'T4',1,,,18.689,0.699 / LKDG132 T4
97185,'T1',1,,,16.487,1.796 / LKIN132 T1
97185,'T2',1,,,13.011,0.423 / LKIN132 T2
97185,'T3',1,,,15.734,1.594 / LKIN132 T3
97185,'T4',1,,,15.677,1.594 / LKIN132 T4
88198,'F1',0,,,0.000,0.000 / LKRC132 F1
88198,'F2',1,,,11.29,1.53 / LKRC132 F2
96134,'T1',1,,,10.477,1.097 / LKUT132 T1
96134,'T2',1,,,10.147,1.075 / LKUT132 T2
96134,'T3',1,,,9.16,0.88 / LKUT132 T3
96134,'T4',1,,,9.16,0.88 / LKUT132 T4
75132,'T1',1,,,30.691,4.931 / LMAL132 T1
75132,'T2',1,,,29.994,7.183 / LMAL132 T2
63131,'T1',1,,,8.633,1.139 / LMTM132 T1
63131,'T2',1,,,8.615,1.136 / LMTM132 T2
63131,'T3',1,,,38.228,1.419 / LMTM132 T3
63131,'T4',1,,,36.688,2.165 / LMTM132 T4
63129,'T1',1,,,28.704,1.143 / LMUT132 T1
63129,'T2',1,,,29.541,2.093 / LMUT132 T2
63129,'T3',1,,,22.88,1.923 / LMUT132 T3
97115,'T1',1,,,8.807,1.072 / MAJD132 T1
97115,'T2',1,,,8.42,1.021 / MAJD132 T2
51033,'F1',1,,,2.678,1.133 / MBSD132 F1
51033,'F2',1,,,2.572,1.248 / MBSD132 F2
96405,'T1',1,,,11.277,2.552 / MCOP132 T1
96405,'T2',1,,,9.38,1.281 / MCOP132 T2
96405,'T3',1,,,24.182,1.375 / MCOP132 T3
96405,'T4',1,,,24.482,2.691 / MCOP132 T4
62145,'T1',1,,,15.258,0.252 / MCRN132 T1
62145,'T2',1,,,12.348,1.044 / MCRN132 T2
51081,'T1',1,,,24.651,3.198 / MCRS132 T1
51081,'T2',1,,,21.281,0.96 / MCRS132 T2
88129,'T1',1,,,16.15,3.137 / MDAM132 T1
88129,'T2',1,,,15.851,2.293 / MDAM132 T2
74143,'T1',1,,,6.399,0.742 / MECC132 T1
74143,'T2',1,,,6.455,0.75 / MECC132 T2
74143,'T3',1,,,2.183,4.236 / MECC132 T3
74143,'T4',1,,,2.178,4.279 / MECC132 T4
51057,'T1',1,,,7.481,1.84 / MERU132 T1
51057,'T2',1,,,9.479,2.178 / MERU132 T2
51057,'T3',1,,,31.88,2.302 / MERU132 T3
51057,'T4',1,,,31.973,2.281 / MERU132 T4
63160,'T1',1,,,5.91,5.36 / MERY132 T1
63160,'T2',1,,,5.53,5.11 / MERY132 T2
 96198,'F1' / No Reading / MFDR132 F1
61119,'T1',1,,,7.557,0.889 / MGON132 T1
61119,'T2',1,,,7.747,0.963 / MGON132 T2
61119,'T3',1,,,18.885,10.092 / MGON132 T3
61119,'T4',1,,,16.299,13.705 / MGON132 T4
52038,'F1',1,,,3.1,1.4 / MGST275 F1
52038,'F2',1,,,2.7,0.9 / MGST275 F2
51022,'T1',1,,,8.705,1.506 / MHTA132 T1
51022,'T2',1,,,4.161,0.304 / MHTA132 T2
51022,'T3',1,,,29.929,6.036 / MHTA132 T3
51022,'T4',1,,,30.023,6.125 / MHTA132 T4
88151,'F1',1,,,2.62,0.955 / MJJG132 F1
88151,'F2',1,,,4.023,0.923 / MJJG132 F2
88128,'T1',1,,,40.315,8.703 / MJLR132 T1
88128,'T2',1,,,39.888,8.624 / MJLR132 T2
96120,'T1',1,,,9.109,1.238 / MJYA132 T1
96120,'T2',1,,,10.338,1.225 / MJYA132 T2
97140,'T1',1,,,4.324,0.391 / MKBL132 T1
97140,'T2',1,,,12.578,1.632 / MKBL132 T2
88126,'F1',1,,,3.856,0.89 / MKCL132 F1
88126,'F2',1,,,3.692,1.019 / MKCL132 F2
63146,'T1',1,,,8.316,1.382 / MLBU132 T1
63146,'T2',1,,,12.773,1.929 / MLBU132 T2
63146,'T3',1,,,33.523,6.778 / MLBU132 T3
63146,'T4',1,,,33.639,6.825 / MLBU132 T4
96121,'T1',1,,,10.141,0.243 / MMAU132 T1
96121,'T2',1,,,8.293,0.147 / MMAU132 T2
97401,'F1',1,,,3.064,2.376 / MMHE132 F1
97401,'F2',1,,,4.767,1.318 / MMHE132 F2
96108,'T1',1,,,7.157,2.148 / MMKA132 T1
96108,'T2',1,,,6.709,2.234 / MMKA132 T2
74147,'F1',1,,,0.18,0.08 / MNID132 F1
50114,'F1',1,,,8.921,3.162 / MOXY132 F1
50114,'F2',1,,,7.437,3.548 / MOXY132 F2
96177,'T1',1,,,2.305,0.32 / MPSS132 T1
96177,'T2',1,,,4.716,0.591 / MPSS132 T2
74129,'T1',1,,,3.492,1.252 / MRAN132 T1
74129,'T2',1,,,3.526,1.291 / MRAN132 T2
97136,'T1',1,,,16.253,2.496 / MSAI132 T1
97136,'T2',1,,,16.234,2.496 / MSAI132 T2
97131,'T1',1,,,2.911,0.57 / MSNG132 T1
97131,'T2',1,,,3.059,1.619 / MSNG132 T2
97131,'T3',1,,,5.856,1.723 / MSNG132 T3
97131,'T4',1,,,5.847,1.733 / MSNG132 T4
51012,'F1',1,,,66.72,17.86 / MSWK132 F1
74134,'F1',1,,,7.98,3.31 / MTBE132 F1
74134,'F2',0,,,0.000,0.000 / MTBE132 F2
96156,'T3',1,,,7.25,1.091 / MTIN132 T3
96156,'T4',1,,,9.933,1.231 / MTIN132 T4
74117,'T1',1,,,10.185,1.502 / MTKB132 T1
74117,'T2',1,,,8.843,0.945 / MTKB132 T2
96173,'T1',1,,,4.029,0.384 / MTNH132 T1
96173,'T2',1,,,4.041,0.328 / MTNH132 T2
96173,'T3',1,,,4.413,0.951 / MTNH132 T3
96173,'T5',1,,,8.68,1.79 / MTNH132 T5
96173,'T6',1,,,8.76,1.81 / MTNH132 T6
88105,'T1',1,,,17.606,1.987 / MTRE132 T1
88105,'T2',1,,,17.453,1.978 / MTRE132 T2
97147,'T2',1,,,8.29,1.724 / MUAR132 T2
97147,'T3',1,,,10.745,1.984 / MUAR132 T3
88139,'T1',1,,,3.392,0.48 / MVLY132 T1
88139,'T2',1,,,1.504,0.102 / MVLY132 T2
88139,'T3',1,,,31.334,7.517 / MVLY132 T3
88139,'T4',1,,,31.094,7.43 / MVLY132 T4
88116,'T1',1,,,3.562,0.164 / MWSN132 T1
88116,'T2',1,,,3.523,0.153 / MWSN132 T2
62146,'F1',1,,,0.213,41.351 / MWTA132 F1
562146,'F2',1,,,19.949,10.368 / MWTA132 F2
51064,'F1',1,,,24.345,9.811 / NEGM132 F1
51064,'F2',1,,,25.728,9.6 / NEGM132 F2
63142,'T1',1,,,13.21,1.44 / NKAN132 T1
63142,'T2',1,,,13.27,1.44 / NKAN132 T2
51005,'T3',1,,,26.811,8.49 / NKST132 T3
51005,'T4',1,,,26.944,8.542 / NKST132 T4
96125,'T1',1,,,8.171,2.339 / NLAI132 T1
96125,'T2',1,,,6.609,1.194 / NLAI132 T2
51200,'T1',1,,,34.755,5.232 / NRWG132 T1
51200,'T2',1,,,34.685,5.19 / NRWG132 T2
51200,'T3',1,,,11.112,2.339 / NRWG132 T3
51200,'T4',1,,,7.83,2.701 / NRWG132 T4
96151,'T1',1,,,18.173,7.488 / NSCI132 T1
96151,'T2',1,,,19.22,7.642 / NSCI132 T2
51025,'T1',1,,,36.315,7.012 / NSDA132 T1
51025,'T2',1,,,36.348,6.993 / NSDA132 T2
51025,'T3',1,,,5.964,1.062 / NSDA132 T3
51025,'T4',1,,,7.337,1.921 / NSDA132 T4
51091,'T1',1,,,28.979,4.393 / NSPK132 T1
51091,'T2',1,,,28.37,4.3 / NSPK132 T2
51091,'T3',1,,,7.513,1.488 / NSPK132 T3
51091,'T4',1,,,6.238,1.05 / NSPK132 T4
62111,'T1',1,,,11.078,2.634 / NTBL132 T1
62111,'T2',1,,,10.97,1.673 / NTBL132 T2
51023,'T1',1,,,12.844,3.384 / NUNI132 T1
51023,'T2',1,,,9.914,1.401 / NUNI132 T2
51023,'T3',1,,,40.243,6.615 / NUNI132 T3
51023,'T4',1,,,40.877,5.943 / NUNI132 T4
97138,'T1',1,,,9.119,0.214 / NYOR132 T1
97138,'T2',1,,,15.046,3.5 / NYOR132 T2
96199,'F1',1,,,8.511,1.865 / ONST132 F1
196105,'T1',1,,,7.623,3.044 / OZNA132 T1
196105,'T2',1,,,7.613,3.034 / OZNA132 T2
75104,'T1',1,,,8.252,3.17 / PAKA132 T1
75104,'T2',1,,,8.233,3.024 / PAKA132 T2
75104,'T5',1,,,3.664,0.656 / PAKA132 T5
75104,'T6',1,,,3.666,0.669 / PAKA132 T6
61132,'T1',0,,,0.000,0.000 / PAUH132 T1
61132,'T2',0,,,0.000,0.000 / PAUH132 T2
61132,'T3',1,,,5.92,0.515 / PAUH132 T3
61132,'T4',1,,,11.526,3.674 / PAUH132 T4
61132,'T5',1,,,21.418,0.307 / PAUH132 T5
97177,'T1',1,,,6.207,5.675 / PBJB132 T1
97177,'T2',1,,,6.84,8.39 / PBJB132 T2
97177,'T3',1,,,43.83,7.662 / PBJB132 T3
97177,'T4',1,,,43.91,6.757 / PBJB132 T4
96136,'T1',1,,,9.182,1.944 / PBSR132 T1
96136,'T2',1,,,8.474,0.894 / PBSR132 T2
63118,'T1',1,,,16.121,2.243 / PBTR132 T1
63118,'T2',1,,,20.765,4.211 / PBTR132 T2
88174,'T1',1,,,43.058,8.202 / PCHJ132 T1
88174,'T2',1,,,43.109,8.167 / PCHJ132 T2
88174,'T3',1,,,4.699,0.769 / PCHJ132 T3
88174,'T4',1,,,4.689,0.754 / PCHJ132 T4
551103,'T1',1,,,28.9,1.148 / PCHP132 T1
551103,'T2',1,,,29.016,1.059 / PCHP132 T2
51103,'T3',1,,,47.973,11.119 / PCHP132 T3
74131,'F1',1,,,0.12,0 / PCMT132 F1
74131,'F2',1,,,4.85,0.98 / PCMT132 F2
74131,'F3',1,,,10.82,4.12 / PCMT132 F3
74131,'F4',1,,,1.79,0.66 / PCMT132 F4
75129,'T2',1,,,41.93,6.79 / PCOR132 T2
75129,'T3',1,,,24.198,3.539 / PCOR132 T3
75129,'T4',1,,,23.255,6.232 / PCOR132 T4
63102,'T1',1,,,6.917,0.602 / PCTY132 T1
63102,'T2',1,,,11.013,1.539 / PCTY132 T2
63102,'T3',1,,,15.535,6.831 / PCTY132 T3
63102,'T4',1,,,7.734,0.76 / PCTY132 T4
61134,'F1',1,,,0.155,0.202 / PFTZ132 F1
61134,'F2',1,,,0.151,0.191 / PFTZ132 F2
96123,'T1',1,,,19.699,0.797 / PGAD132 T1
96123,'T2',1,,,19.767,0.826 / PGAD132 T2
97153,'T1',1,,,1.683,0.319 / PGDT132 T1
97153,'T2',1,,,9.568,1.969 / PGDT132 T2
97153,'T3',1,,,16.199,4.963 / PGDT132 T3
97153,'T4',1,,,16.308,5.008 / PGDT132 T4
97191,'T1',1,,,2.284,0.317 / PGEH132 T1
97191,'T2',1,,,2.275,0.307 / PGEH132 T2
97123,'T1',1,,,12.277,1.366 / PGIE132 T1
97123,'T2',1,,,12.276,1.36 / PGIE132 T2
97123,'T3',1,,,17.045,3.557 / PGIE132 T3
97179,'T1',1,,,3.165,0.185 / PGOH132 T1
97179,'T2',1,,,3.157,0.193 / PGOH132 T2
75139,'F1',1,,,0.28,0.633 / PGPP132 F1
75139,'F2',1,,,0.281,0.634 / PGPP132 F2
97167,'T1',1,,,60.277,9.911 / PGTC132 T1
97167,'T2',0,,,0.000,0.000 / PGTC132 T2
63122,'F1',1,,,3.211,2.347 / PHCT132 F1
63122,'F2',1,,,3.348,2.693 / PHCT132 F2
51049,'T1',1,,,33.178,8.302 / PIDH132 T1
51049,'T2',1,,,33.072,8.321 / PIDH132 T2
51049,'T3',1,,,11.974,2.848 / PIDH132 T3
51049,'T4',1,,,9.287,2.062 / PIDH132 T4
51049,'T5',1,,,36.192,7.449 / PIDH132 T5
51049,'T6',1,,,34.464,8.928 / PIDH132 T6
96188,'T1',1,,,8.909,1.625 / PJAM132 T1
96188,'T2',1,,,5.705,0.728 / PJAM132 T2
96188,'T3',1,,,2.32,2.86 / PJAM132 T3
96188,'T4',1,,,2.52,2.36 / PJAM132 T4
97103,'T3',1,,,8.557,1.307 / PJML132 T3
97103,'T4',1,,,6.909,0.378 / PJML132 T4
51082,'T1',1,,,27.914,3.091 / PJST132 T1
51082,'T2',1,,,27.907,3.116 / PJST132 T2
51082,'T3',1,,,7.033,1.073 / PJST132 T3
51082,'T4',1,,,8.25,0.928 / PJST132 T4
51073,'T1',1,,,26.381,0.85 / PJYC132 T1
51073,'T2',1,,,26.66,0.824 / PJYC132 T2
74109,'T1',1,,,4.255,0.26 / PKAN132 T1
74109,'T2',1,,,4.262,0.268 / PKAN132 T2
74109,'T3',1,,,5.76,0.55 / PKAN132 T3
63120,'T1',1,,,1.259,0.142 / PKCB132 T1
63120,'T2',1,,,1.238,0.099 / PKCB132 T2
63145,'T1',1,,,6.275,1.259 / PKID132 T1
63145,'T2',1,,,11.03,2.113 / PKID132 T2
63145,'T3',1,,,10.756,1.233 / PKID132 T3
63145,'T4',1,,,10.769,1.183 / PKID132 T4
51015,'T1',1,,,7.193,1.258 / PKLG132 T1
51015,'T2',1,,,7.119,1.236 / PKLG132 T2
63133,'T1',1,,,7.202,1.057 / PKLN132 T1
63133,'T2',1,,,13.452,2.064 / PKLN132 T2
63133,'T3',1,,,26.899,1.435 / PKLN132 T3
63133,'T4',1,,,26.724,1.408 / PKLN132 T4
74115,'T1',1,,,6.759,0.452 / PKNI132 T1
74115,'T2',1,,,6.768,0.432 / PKNI132 T2
97198,'T1',1,,,29.06,0.326 / PLGI132 T1
97198,'T2',1,,,29.194,0.317 / PLGI132 T2
97108,'T1',1,,,7.848,1.149 / PLNG132 T1
97108,'T2',1,,,6.078,0.994 / PLNG132 T2
97108,'T3',1,,,45.704,4.349 / PLNG132 T3
97108,'T4',1,,,46.631,4.38 / PLNG132 T4
88175,'T1',1,,,12.616,1.888 / PMJU132 T1
88175,'T2',1,,,4.462,0.502 / PMJU132 T2
88175,'T3',1,,,39.387,4.556 / PMJU132 T3
88175,'T4',1,,,39.642,4.623 / PMJU132 T4
88175,'T5',1,,,36.191,3.627 / PMJU132 T5
88175,'T6',1,,,34.341,3.325 / PMJU132 T6
97165,'T1',1,,,12.917,2.662 / PMJY132 T1
97165,'T2',1,,,13.465,1.24 / PMJY132 T2
97165,'T3',1,,,34.686,3.116 / PMJY132 T3
97165,'T4',1,,,36.709,3.177 / PMJY132 T4
96116,'T1',1,,,7.497,0.873 / PMKA132 T1
96116,'T2',1,,,7.478,0.864 / PMKA132 T2
51042,'T1',0,,,0.000,0.000 / PMRN132 T1
51042,'T2',1,,,14.284,3.403 / PMRN132 T2
51042,'T3',1,,,25.021,2.926 / PMRN132 T3
51042,'T4',1,,,25.092,2.978 / PMRN132 T4
97155,'T1',1,,,13.29,3.734 / PNAS132 T1
97155,'T2',1,,,15.426,3.618 / PNAS132 T2
51039,'T1',1,,,37.891,13.041 / PNGA132 T1
51039,'T2',1,,,35.515,1.759 / PNGA132 T2
97145,'T1',1,,,4.795,0.073 / PNWR132 T1
97145,'T2',1,,,3.93,0.096 / PNWR132 T2
97151,'T1',1,,,9.727,0.233 / PONT132 T1
97151,'T2',1,,,9.734,1.817 / PONT132 T2
97151,'T3',1,,,11.145,0.514 / PONT132 T3
97151,'T4',1,,,11.173,0.113 / PONT132 T4
96147,'T1',1,,,4.339,0.257 / PPJG132 T1
96147,'T2',1,,,5.768,0.123 / PPJG132 T2
96197,'1B',1,,,6.274,1.3 / PPSR132 F1B
96197,'2B',1,,,0.11,1.521 / PPSR132 F2B
75114,'T1',1,,,16.004,1.615 / PPTH132 T1
75114,'T2',1,,,15.738,1.918 / PPTH132 T2
62137,'T1',1,,,9.949,2.502 / PRGS132 T1
62137,'T2',1,,,11.613,3.362 / PRGS132 T2
562137,'T3',1,,,22.188,0.668 / PRGS132 T3
562137,'T4',1,,,22.343,0.658 / PRGS132 T4
62155,'T1',1,,,23.67,4.773 / PRID132 T1
62155,'T2',1,,,23.505,4.718 / PRID132 T2
62155,'T3',1,,,47.222,9.638 / PRID132 T3
62155,'T4',1,,,47.347,9.734 / PRID132 T4
97119,'T1',1,,,12.613,2.703 / PRJA132 T1
97119,'T2',1,,,7.966,1.409 / PRJA132 T2
97119,'T3',1,,,2.693,0.626 / PRJA132 T3
97119,'T4',1,,,2.702,0.634 / PRJA132 T4
96158,'T1',1,,,11.025,2.287 / PROI132 T1
96158,'T2',1,,,9.991,1.65 / PROI132 T2
96158,'T3',1,,,21.782,2.475 / PROI132 T3
96158,'T4',1,,,21.838,2.181 / PROI132 T4
51009,'T1',1,,,39.883,10.623 / PROT132 T1
51009,'T2',1,,,39.784,10.635 / PROT132 T2
51009,'T3',1,,,43.97,10.811 / PROT132 T3
97163,'T1',1,,,10.205,0.18 / PSAK132 T1
97163,'T2',1,,,10.006,0.536 / PSAK132 T2
97163,'T3',1,,,11.739,7.639 / PSAK132 T3
97163,'T4',1,,,11.863,7.712 / PSAK132 T4
97181,'T3',1,,,6.614,0.195 / PSLG132 T3
97181,'T4',1,,,6.6,0.594 / PSLG132 T4
97120,'T1',1,,,8.175,1.162 / PSRI132 T1
97120,'T2',1,,,15.543,1.802 / PSRI132 T2
 88176,'T1' / No Reading / PTAI132 T1
 88176,'T2' / No Reading / PTAI132 T2
88176,'T3',1,,,42.93,7.16 / PTAI132 T3
88176,'T4',1,,,42.779,7.121 / PTAI132 T4
97409,'T1',1,,,24.815,1.82 / PTDC132 T1
97409,'T2',1,,,25.725,0.805 / PTDC132 T2
97199,'F1',1,,,9.907,3.034 / PTPS132 F1
97199,'F2',1,,,11.577,3.11 / PTPS132 F2
97118,'T1',1,,,15.733,4.541 / PUBB132 T1
97118,'T2',1,,,15.862,4.569 / PUBB132 T2
88119,'T1',1,,,45.559,7.649 / PULU132 T1
88119,'T2',1,,,45.362,7.606 / PULU132 T2
88179,'T1',1,,,21.652,1.981 / PVBJ132 T1
88179,'T2',1,,,21.717,1.986 / PVBJ132 T2
97104,'T1',1,,,3,0.358 / PYSF132 T1
97104,'T2',1,,,2.959,0.362 / PYSF132 T2
96117,'T1',1,,,7.958,1.214 / RASA132 T1
96117,'T2',1,,,8.058,1.158 / RASA132 T2
74151,'T1',1,,,12.934,6.928 / RBDR132 T1
74151,'T2',1,,,10.508,8.106 / RBDR132 T2
74151,'T3',0,,,0.000,0.000 / RBDR132 T3
74151,'T4',0,,,0.000,0.000 / RBDR132 T4
97111,'T1',1,,,5.44,0.41 / RNGM132 T1
97111,'T2',1,,,5.304,0.403 / RNGM132 T2
97124,'T1',1,,,6.36,0.84 / RNGT132 T1
97124,'T2',1,,,5.362,0.747 / RNGT132 T2
97124,'T3',1,,,7.403,0.767 / RNGT132 T3
75134,'T1',1,,,5.797,1.203 / RPJG132 T1
75134,'T2',1,,,5.557,1.401 / RPJG132 T2
75111,'T1',1,,,6.373,0.395 / RPTS132 T1
75111,'T2',1,,,4.74,0.662 / RPTS132 T2
51052,'T1',1,,,13.974,2.391 / RSID132 T1
51052,'T2',1,,,13.909,2.407 / RSID132 T2
96142,'T1',1,,,5.251,0.862 / RTAU132 T1
96142,'T2',1,,,5.25,0.864 / RTAU132 T2
97134,'T1',1,,,9.051,0.321 / SABG132 T1
97134,'T2',1,,,10.911,1.212 / SABG132 T2
97134,'T3',1,,,22.544,1.776 / SABG132 T3
97134,'T4',1,,,22.56,4.779 / SABG132 T4
62147,'F1',1,,,10.71,3.333 / SAND132 F1
62147,'F2',1,,,8.712,2.585 / SAND132 F2
62128,'T1',1,,,24.96,0.163 / SARA132 T1
62128,'T2',1,,,25.008,0.153 / SARA132 T2
96149,'T1',1,,,13.655,2.59 / SBAN132 T1
96149,'T2',1,,,10.44,0.768 / SBAN132 T2
63147,'T1',1,,,5.734,0.944 / SBGS132 T1
63147,'T2',1,,,5.708,0.915 / SBGS132 T2
63147,'T3',1,,,8.29,2.08 / SBGS132 T3
63147,'T4',1,,,8.19,2.04 / SBGS132 T4
51034,'T1',1,,,9.278,0.379 / SBSR132 T1
51034,'T2',1,,,7.879,0.615 / SBSR132 T2
51034,'T3',1,,,20.436,0.13 / SBSR132 T3
51034,'T4',1,,,20.327,0.137 / SBSR132 T4
88107,'T1',1,,,27.287,4.031 / SCTY132 T1
88107,'T2',1,,,27.213,4.018 / SCTY132 T2
97113,'T1',1,,,26.778,6.229 / SDAI132 T1
97113,'T2',1,,,22.944,1.514 / SDAI132 T2
97113,'T7',1,,,0.431,0.309 / SDAI132 T7
97113,'T8',1,,,0.485,0.288 / SDAI132 T8
197113,'T9',0,,,0.000,0.000 / SDAI132 T9
88173,'T1',1,,,53.013,2.796 / SDAM132 T1
 88173,'T2' / No Reading / SDAM132 T2
51032,'T1',1,,,22.509,2.115 / SDCA132 T1
51032,'T2',1,,,22.582,2.136 / SDCA132 T2
97137,'T1',1,,,17.165,2.86 / SDNK132 T1
97137,'T2',1,,,17.136,2.851 / SDNK132 T2
96150,'T1',1,,,38.362,4.474 / SDYN132 T1
96150,'T2',1,,,38.573,4.493 / SDYN132 T2
97142,'T1',1,,,16.952,4.055 / SELG132 T1
97142,'T2',1,,,1.931,0.146 / SELG132 T2
97146,'T1',1,,,15.184,4.159 / SGAD132 T1
97146,'T2',1,,,6.483,1.91 / SGAD132 T2
97146,'T3',1,,,8.763,1.533 / SGAD132 T3
97146,'T4',1,,,11.613,3.216 / SGAD132 T4
88122,'T1',1,,,36.837,5.689 / SGBT132 T1
88122,'T2',1,,,36.472,5.657 / SGBT132 T2
51044,'F1',1,,,0.159,0.187 / SGLC132 F1
51044,'F2',1,,,0.23,0.216 / SGLC132 F2
97141,'T1',1,,,8.559,3.173 / SGMT132 T1
97141,'T2',1,,,8.752,0.099 / SGMT132 T2
51027,'T1',1,,,31.782,6.939 / SHAB132 T1
51027,'T2',1,,,32.646,6.804 / SHAB132 T2
51017,'T1',1,,,3.112,0.205 / SHAE132 T1
51017,'T2',1,,,5.915,1.075 / SHAE132 T2
51017,'T3',1,,,22.026,4.846 / SHAE132 T3
51017,'T4',1,,,22.259,4.884 / SHAE132 T4
51017,'T5',1,,,33.999,6.516 / SHAE132 T5
 51003,'T1' / No Reading / SHAN132 T1
 51003,'T2' / No Reading / SHAN132 T2
 51003,'T3' / No Reading / SHAN132 T3
51007,'T1',1,,,37.238,8.112 / SHAS132 T1
51007,'T2',1,,,37.344,8.169 / SHAS132 T2
51041,'T1',1,,,8.645,2.202 / SHAW132 T1
51041,'T2',1,,,5.609,0.996 / SHAW132 T2
51041,'T3',1,,,27.295,4.953 / SHAW132 T3
51041,'T4',1,,,27.21,5.002 / SHAW132 T4
96141,'T1',1,,,12.867,7.87 / SHEL132 T1
96141,'T2',1,,,12.585,3.42 / SHEL132 T2
51002,'T1',1,,,26.43,6.37 / SHLB132 T1
51002,'T2',1,,,26.49,6.35 / SHLB132 T2
88142,'T1',1,,,30.032,7.418 / SHMS132 T1
88142,'T2',1,,,29.472,2.422 / SHMS132 T2
97126,'T1',1,,,40.003,2.611 / SHTE132 T1
97126,'T2',1,,,39.197,2.17 / SHTE132 T2
97251,'T1',1,,,38.64,2.38 / SIDC275 T1
97251,'T2',1,,,40.04,2.065 / SIDC275 T2
63125,'T1',1,,,1.85,0.12 / SIHY132 T1
63125,'T2',1,,,1.78,0.15 / SIHY132 T2
63111,'T1',1,,,15.519,2.073 / SIKD132 T1
63111,'T2',1,,,15.499,2.095 / SIKD132 T2
63111,'T3',1,,,13.661,2.229 / SIKD132 T3
63111,'T4',1,,,13.709,2.317 / SIKD132 T4
62112,'T1',1,,,44.097,8.334 / SJAY132 T1
62112,'T2',1,,,44.552,8.437 / SJAY132 T2
51075,'T1',1,,,25.344,4.925 / SJTC132 T1
51075,'T2',1,,,25.401,4.954 / SJTC132 T2
75106,'T1',1,,,17.802,3.208 / SJTH132 T1
75106,'T2',1,,,17.867,3.309 / SJTH132 T2
75106,'T5',1,,,14.088,0.168 / SJTH132 T5
62107,'T1',1,,,8.718,0.992 / SKCL132 T1
62107,'T2',1,,,6.255,0.476 / SKCL132 T2
62107,'T3',1,,,21.358,2.657 / SKCL132 T3
62107,'T4',1,,,21.075,2.623 / SKCL132 T4
97190,'T1',1,,,1.21,0.326 / SKRG132 T1
597190,'T2',1,,,1.431,0.202 / SKRG132 T2
97143,'T1',1,,,8.885,1.384 / SLNG132 T1
97143,'T2',1,,,13.032,2.786 / SLNG132 T2
97143,'T3',1,,,32.713,3.187 / SLNG132 T3
97143,'T4',1,,,32.002,3.174 / SLNG132 T4
51079,'T1',1,,,10.845,0.876 / SLTI132 T1
51079,'T2',1,,,11.69,1.38 / SLTI132 T2
51079,'T3',1,,,4.72,0.14 / SLTI132 T3
51079,'T4',1,,,4.7,0.15 / SLTI132 T4
74107,'T1',1,,,11.814,1.569 / SMBU132 T1
74107,'T2',1,,,4.493,0.472 / SMBU132 T2
96133,'T1',1,,,12.058,1.693 / SMRK132 T1
96133,'T2',1,,,8.134,2.072 / SMRK132 T2
97154,'T1',1,,,9.632,1.386 / SMTI132 T1
97154,'T2',1,,,7.933,0.028 / SMTI132 T2
97154,'T3',1,,,4.116,0.504 / SMTI132 T3
97154,'T4',1,,,4.228,0.522 / SMTI132 T4
88132,'T1',1,,,5.154,0.458 / SMTN132 T1
88132,'T2',1,,,5.182,0.45 / SMTN132 T2
51054,'T1',1,,,8.609,1.181 / SMYH132 T1
51054,'T2',1,,,12.857,2.204 / SMYH132 T2
97162,'T1',1,,,10.528,3.365 / SNAI132 T1
97162,'T2',1,,,10.527,3.359 / SNAI132 T2
97162,'T3',1,,,46.976,9.371 / SNAI132 T3
97162,'T4',1,,,46.553,9.268 / SNAI132 T4
96143,'T1',1,,,8.45,1.05 / SNWG132 T1
96143,'T2',1,,,8.39,1.01 / SNWG132 T2
74127,'T1',1,,,11.969,1.002 / SONG132 T1
74127,'T2',1,,,8.191,0.285 / SONG132 T2
62124,'T1',1,,,48.845,10.138 / SPAE132 T1
62124,'T2',1,,,12.019,1.738 / SPAE132 T2
61106,'T1',1,,,9.78,0.432 / SPID132 T1
61106,'T2',1,,,7.844,3.474 / SPID132 T2
61106,'T3',1,,,30.442,3.307 / SPID132 T3
61106,'T4',1,,,30.661,3.359 / SPID132 T4
88162,'T3',1,,,42.93,7.02 / SPKC132 T3
88162,'T4',1,,,42.73,7.01 / SPKC132 T4
88162,'T5',1,,,48.024,4.16 / SPKC132 T5
62135,'T1',1,,,30.165,5.406 / SPNG132 T1
62135,'T2',1,,,30.444,15.659 / SPNG132 T2
96139,'T1',1,,,6.063,0.428 / SPTG132 T1
96139,'T2',1,,,6.121,0.429 / SPTG132 T2
96139,'T3',0,,,0.000,0.000 / SPTG132 T3
96139,'T4',0,,,0.000,0.000 / SPTG132 T4
96181,'F1',0,,,0.000,0.000 / SPWR132 F1
96181,'F2',1,,,0.038,0.02 / SPWR132 F2
96115,'T1',1,,,5.577,1.402 / SRBI132 T1
96115,'T2',1,,,5.554,1.387 / SRBI132 T2
51030,'T1',1,,,13.047,1.465 / SRDG132 T1
51030,'T2',1,,,13.109,1.434 / SRDG132 T2
51050,'T1',1,,,21.634,1.204 / SRDN132 T1
51050,'T2',1,,,21.601,1.209 / SRDN132 T2
51130,'T1',1,,,32.934,5.908 / SRDR132 T1
51130,'T2',1,,,33.023,5.903 / SRDR132 T2
97139,'T1',1,,,11.174,0.579 / SRGM132 T1
97139,'T2',1,,,8.704,1.485 / SRGM132 T2
662144,'F1',1,,,3.607,1.123 / SRNW132 F1
62144,'F1',0,,,0.000,0.000 / SRON132 F1
62144,'F2',1,,,5.789,1.93 / SRON132 F2
562144,'F3',0,,,0.000,0.000 / SRON132 F3
63157,'T5',1,,,7.4,1.27 / SRVR132 T5
63157,'T6',1,,,7.455,0.573 / SRVR132 T6
88118,'T1',1,,,7.607,1.385 / SRYA132 T1
88118,'T2',1,,,7.578,1.374 / SRYA132 T2
88118,'T3',1,,,34.723,5.502 / SRYA132 T3
88118,'T4',1,,,34.931,5.563 / SRYA132 T4
97125,'T3',1,,,4.75,0.761 / SSLG132 T3
97125,'T4',1,,,4.75,0.763 / SSLG132 T4
63140,'T1',1,,,10.956,3.538 / SSPT132 T1
63140,'T2',1,,,10.999,3.517 / SSPT132 T2
596193,'F1',1,,,27.659,9.703 / SSUN132 F1
596193,'F2',1,,,28.564,10.39 / SSUN132 F2
51029,'T1',1,,,9.319,2.025 / SSWW132 T1
51029,'T2',1,,,9.366,2.026 / SSWW132 T2
51013,'T1',1,,,39.123,8.199 / STIA132 T1
51013,'T2',1,,,43.536,9.562 / STIA132 T2
97196,'T1',1,,,13.676,5.152 / STME132 T1
97196,'T2',1,,,12.278,5.141 / STME132 T2
75120,'T1',1,,,11.376,0.821 / STNG132 T1
75120,'T2',1,,,5.691,0.39 / STNG132 T2
96190,'T1',1,,,12.853,1.721 / STRA132 T1
96190,'T2',1,,,7.471,1.166 / STRA132 T2
97152,'T1',1,,,4.389,1.019 / STUL132 T1
97152,'T2',1,,,4.334,0.463 / STUL132 T2
63126,'T1',1,,,0.234,0.441 / SYPS132 T1
63126,'T2',1,,,0.234,0.441 / SYPS132 T2
74157,'T7',1,,,2.52,0.14 / TAGP132 T7
97101,'T1',1,,,10.884,1.061 / TAGS132 T1
97101,'T2',1,,,14.795,3.186 / TAGS132 T2
63134,'T1',1,,,6.49,1.76 / TASK132 T1
63134,'T2',1,,,6.42,1.75 / TASK132 T2
63134,'T3',1,,,12.277,2.263 / TASK132 T3
63134,'T4',1,,,9.361,1.233 / TASK132 T4
97135,'T1',1,,,0.652,0.138 / TBKR132 T1
74917,'T2',1,,,0.655,0.147 / TBKR132 T2
97186,'T1',1,,,10.793,1.67 / TBRU132 T1
97186,'T2',1,,,11.512,1.978 / TBRU132 T2
97186,'T3',1,,,41.854,6.712 / TBRU132 T3
97186,'T4',1,,,41.069,6.473 / TBRU132 T4
63135,'T1',1,,,6.887,1.915 / TCMT132 T1
63135,'T2',1,,,8.247,1.379 / TCMT132 T2
63135,'T3',1,,,2.08,0.81 / TCMT132 T3
63135,'T4',1,,,2.087,0.82 / TCMT132 T4
63103,'F1',1,,,6.062,1.363 / TCOP132 F1
63103,'F2',1,,,8.016,3.101 / TCOP132 F2
61103,'T1',1,,,15.914,2.703 / TEWA132 T1
61103,'T2',1,,,16.16,2.718 / TEWA132 T2
96189,'T1',1,,,3.315,0.255 / TGBU132 T1
96189,'T2',1,,,2.864,0.451 / TGBU132 T2
96189,'T3',1,,,16.138,4.912 / TGBU132 T3
96189,'T4',1,,,16.243,4.954 / TGBU132 T4
74106,'T1',1,,,5.515,0.844 / TGLN132 T1
74106,'T2',1,,,5.067,3.384 / TGLN132 T2
74106,'T3',1,,,10.034,2.857 / TGLN132 T3
62125,'T1',1,,,24.384,1.181 / TGLR132 T1
62125,'T2',1,,,24.585,1.21 / TGLR132 T2
74133,'T1',1,,,11.65,1.59 / TGMK132 T1
74133,'T2',1,,,11.64,1.61 / TGMK132 T2
62127,'T1',1,,,18.528,2.611 / TGTK132 T1
62127,'T2',1,,,18.739,2.659 / TGTK132 T2
63150,'T1',1,,,6.087,0.759 / TINE132 T1
63150,'T2',1,,,6.058,0.749 / TINE132 T2
63130,'T1',1,,,9.48,1.6 / TINT132 T1
63130,'T2',1,,,9.328,1.5 / TINT132 T2
563130,'T3',1,,,6.28,0.88 / TINT132 T3
74111,'T1',1,,,1.075,0.053 / TJBU132 T1
74111,'T2',1,,,1.095,0.062 / TJBU132 T2
96131,'T1',1,,,8.198,0.745 / TJGS132 T1
96131,'T2',1,,,7.589,0.154 / TJGS132 T2
96135,'T1',1,,,8.399,1.19 / TJID132 T1
96135,'T2',1,,,6.764,2.203 / TJID132 T2
96135,'T3',1,,,20.398,3.157 / TJID132 T3
96135,'T4',1,,,20.417,3.143 / TJID132 T4
75127,'T1',1,,,21.427,1.008 / TJUG132 T1
75127,'T2',1,,,23.631,2.515 / TJUG132 T2
51020,'T1',1,,,32.417,2.046 / TJYA132 T1
51020,'T2',1,,,33.606,11.233 / TJYA132 T2
51020,'T3',1,,,22.25,4.95 / TJYA132 T3
97128,'T3',1,,,8.873,1.018 / TKAK132 T3
97128,'T4',1,,,10.39,0.017 / TKAK132 T4
61112,'T1',1,,,21.458,0.369 / TKBU132 T1
61112,'T2',1,,,21.481,0.363 / TKBU132 T2
97117,'T1',1,,,7.703,0.738 / TKID132 T1
97117,'T2',1,,,7.641,0.745 / TKID132 T2
75126,'T1',1,,,4.369,0.487 / TKLG132 T1
75126,'T2',1,,,4.37,0.482 / TKLG132 T2
75126,'T3',1,,,7.42,1.148 / TKLG132 T3
75126,'T4',1,,,7.45,1.164 / TKLG132 T4
96144,'T1',1,,,5.558,0.066 / TKMG132 T1
96144,'T2',1,,,5.552,0.064 / TKMG132 T2
97166,'T1',1,,,6.361,1.893 / TKPG132 T1
97166,'T2',1,,,6.935,2.269 / TKPG132 T2
97166,'T3',1,,,18.117,3.613 / TKPG132 T3
97166,'T4',1,,,18.069,3.585 / TKPG132 T4
97180,'T1',1,,,11.6,2 / TLBH132 T1
97180,'T2',1,,,12.639,1.108 / TLBH132 T2
97184,'T1',1,,,4.574,1.926 / TLST132 T1
97184,'T2',1,,,4.598,1.942 / TLST132 T2
97184,'T3',1,,,10.018,1.555 / TLST132 T3
97184,'T4',1,,,8.914,1.613 / TLST132 T4
97184,'T5',1,,,33.925,5.968 / TLST132 T5
97184,'T6',1,,,33.874,5.917 / TLST132 T6
97183,'F1',1,,,23.736,8.16 / TLTP132 F1
96110,'T1',1,,,10.989,1.687 / TMAS132 T1
96110,'T2',1,,,8.994,0.545 / TMAS132 T2
63206,'T1',1,,,5.16,2.57 / TMGR275 T1
74144,'T1',1,,,5.819,1.759 / TMID132 T1
74144,'T2',1,,,5.917,2.169 / TMID132 T2
74144,'T3',0,,,0.000,0.000 / TMID132 T3
74144,'T4',0,,,0.000,0.000 / TMID132 T4
63127,'T3',1,,,9.08,0.37 / TMOH132 T3
63127,'T4',1,,,8.91,0.36 / TMOH132 T4
97192,'T1',1,,,25.434,5.39 / TMPI132 T1
97192,'T2',1,,,25.185,5.351 / TMPI132 T2
75101,'T2',1,,,29.348,3.11 / TMRH132 T2
75101,'T3',1,,,29.271,3.129 / TMRH132 T3
51084,'T1',1,,,20.233,0.85 / TMSY132 T1
51084,'T2',1,,,20.193,0.827 / TMSY132 T2
51084,'T3',1,,,4.161,0.986 / TMSY132 T3
51084,'T4',1,,,3.474,0.519 / TMSY132 T4
88127,'T1',1,,,12.567,0.663 / TMWT132 T1
88127,'T2',1,,,12.691,0.672 / TMWT132 T2
88134,'T1',1,,,33.588,5.221 / TNHQ132 T1
88134,'T2',1,,,33.765,5.305 / TNHQ132 T2
97121,'T1',1,,,9.977,0.844 / TPCH132 T1
97121,'T2',1,,,4.93,0.897 / TPCH132 T2
51051,'T1',1,,,9.77,0.839 / TPGR132 T1
51051,'T2',1,,,8.874,2.697 / TPGR132 T2
51051,'T3',1,,,36.674,0.419 / TPGR132 T3
51051,'T4',1,,,38.035,12.634 / TPGR132 T4
63154,'T1',1,,,11.678,1.94 / TPID132 T1
63154,'T2',1,,,11.775,1.951 / TPID132 T2
63154,'T3',1,,,24.265,0.315 / TPID132 T3
63154,'T4',1,,,24.017,0.328 / TPID132 T4
63121,'T1',1,,,10.748,1.403 / TPNG132 T1
563121,'T2',1,,,13.16,1.249 / TPNG132 T2
97127,'T1',1,,,12.173,0.819 / TPOI132 T1
97127,'T2',1,,,12.179,0.819 / TPOI132 T2
97130,'T1',1,,,2.194,0.381 / TRMN132 T1
97130,'T2',1,,,2.165,0.39 / TRMN132 T2
97130,'T3',1,,,5.721,5.625 / TRMN132 T3
97130,'T4',1,,,5.655,5.558 / TRMN132 T4
97171,'F1',1,,,5.824,2.923 / TTAN132 F1
97171,'F2',1,,,7.092,2.736 / TTAN132 F2
96129,'T1',1,,,11.95,1.709 / TTJF132 T1
96129,'T2',1,,,12.785,6.161 / TTJF132 T2
97144,'T1',1,,,15.072,1.623 / TTKJ132 T1
97144,'T2',1,,,15.024,1.613 / TTKJ132 T2
97195,'T1',1,,,8.512,0.916 / TUNI132 T1
97195,'T2',1,,,14.869,2.636 / TUNI132 T2
88137,'T1',1,,,31.014,6.129 / TWSA132 T1
88137,'T2',1,,,30.981,6.121 / TWSA132 T2
74156,'T1',1,,,7.189,4.791 / UIAM132 T1
74156,'T2',1,,,6.777,5.556 / UIAM132 T2
74212,'T1',1,,,1.06,1.133 / UJLI275 T1
74212,'T2',1,,,1.065,1.07 / UJLI275 T2
74148,'F1',1,,,22.58,3.37 / UKLI132 F1
74148,'F2',1,,,22.61,3.27 / UKLI132 F2
61125,'T1',1,,,2.728,0.349 / UMKA132 T1
61125,'T2',1,,,2.727,0.396 / UMKA132 T2
61125,'T3',1,,,15.434,0.14 / UMKA132 T3
61125,'T4',1,,,15.296,0.159 / UMKA132 T4
96113,'T1',1,,,7.658,0.43 / UPSR132 T1
96113,'T2',1,,,9.321,0.964 / UPSR132 T2
96113,'T3',1,,,21.365,3.166 / UPSR132 T3
96113,'T4',1,,,21.335,3.093 / UPSR132 T4
97159,'F1',1,,,5.654,0.547 / UTMJ132 F1
597159,'F2',1,,,1.911,0.389 / UTMJ132 F2
 97188,'T1' / No Reading / UTRM132 T1
97188,'T2',1,,,7.49,0.157 / UTRM132 T2
97188,'T3',1,,,29.751,1.922 / UTRM132 T3
97188,'T4',1,,,29.196,5.441 / UTRM132 T4
51100,'T1',1,,,12.906,2.109 / UYAM132 T1
51100,'T2',1,,,8.729,1.922 / UYAM132 T2
51100,'T3',1,,,5.161,1.957 / UYAM132 T3
51100,'T4',1,,,5.189,1.945 / UYAM132 T4
63217,'F1',1,,,1.25,5.42 / VALE275 F1
63217,'F2',1,,,0.98,5.35 / VALE275 F2
88160,'T1',1,,,8.96,1.75 / VCTY132 T1
88160,'T2',1,,,8.96,1.75 / VCTY132 T2
88160,'T3',1,,,29.82,7.638 / VCTY132 T3
88160,'T4',1,,,29.952,7.634 / VCTY132 T4
62122,'T1',1,,,14.205,1.756 / VDOR132 T1
62122,'T2',1,,,13.829,2.172 / VDOR132 T2
51046,'T1',1,,,27.033,5.145 / VMBR132 T1
51046,'T2',1,,,26.716,5.116 / VMBR132 T2
88159,'T1',1,,,41.447,7.177 / WMJU132 T1
88159,'T2',1,,,41.509,7.202 / WMJU132 T2
97107,'T1',1,,,7.491,0.153 / YGPG132 T1
97107,'T2',1,,,9.16,0.576 / YGPG132 T2
97107,'T3',1,,,5.64,0.605 / YGPG132 T3
97107,'T4',1,,,5.664,0.605 / YGPG132 T4
97247,'T1',1,,,25.575,0.275 / YWDC275 T1
97247,'T2',1,,,17.6,0.22 / YWDC275 T2
96195,'T1',1,,,3.696,0.324 / ZRNA132 T1
96195,'T2',1,,,3.714,0.337 / ZRNA132 T2
0 / END OF LOAD DATA, BEGIN FIXED SHUNT DATA
0 / END OF FIXED SHUNT DATA, BEGIN GENERATOR DATA
0 / END OF VOLTAGE DROOP CONTROL DATA, BEGIN GENERATOR DATA
0 / END OF GENERATOR DATA, BEGIN BRANCH DATA
0 / END OF SWITCHING DEVICE RATING SET DATA, BEGIN BRANCH DATA
0 / END OF BRANCH DATA, BEGIN SYSTEM SWITCHING DEVICE DATA
0 / END OF BRANCH DATA, BEGIN TRANSFORMER DATA
0 / END OF SYSTEM SWITCHING DEVICE DATA, BEGIN TRANSFORMER DATA
0 / END OF TRANSFORMER DATA, BEGIN AREA DATA
0 / END OF AREA DATA, BEGIN TWO - TERMINAL DC DATA
0 / END OF TWO - TERMINAL DC DATA, BEGIN VSC DC LINE DATA
0 / END OF VSC DC LINE DATA, BEGIN IMPEDANCE CORRECTION DATA
0 / END OF IMPEDANCE CORRECTION DATA, BEGIN MULTI - TERMINAL DC DATA
0 / END OF MULTI - TERMINAL DC DATA, BEGIN MULTI - SECTION LINE DATA
0 / END OF MULTI - SECTION LINE DATA, BEGIN ZONE DATA
0 / END OF ZONE DATA, BEGIN INTER - AREA TRANSFER DATA
0 / END OF INTER - AREA TRANSFER DATA, BEGIN OWNER DATA
0 / END OF OWNER DATA, BEGIN FACTS DEVICE DATA
0 / END OF FACTS DEVICE DATA, BEGIN SWITCHED SHUNT DATA
0 / END OF SWITCHED SHUNT DATA, BEGIN GNE DATA
0 / END OF GNE DATA, BEGIN INDUCTION MACHINE DATA
0 / END OF INDUCTION MACHINE DATA, BEGIN LOAD TYPE DATA
0 / END OF LOAD TYPE DATA, BEGIN INTERFACE DATA
0 / END OF INTERFACE DATA, BEGIN INTERFACE ELEMENT DATA
0 / END OF INTERFACE ELEMENT DATA, BEGIN SUBSTATION DATA
0 / END OF SUBSTATION DATA
Q
